
Circuit: *

Doing analysis at TEMP = 27.000000 and TNOM = 27.000000


No. of Data Rows : 1
****************
Operating point
****************
op1_TAB
@c0[i] = 0.000000e+00
@g0[i] = -3.00677e-04
@r1[i] = 2.870701e-04
@r2[i] = -3.00677e-04
@r3[i] = -1.36064e-05
@r4[i] = 1.190255e-03
@r5[i] = -3.00677e-04
@r6[i] = 9.031846e-04
@r7[i] = 9.031846e-04
h0#branch = -9.03185e-04
n1 = 5.025226e+00
n2 = 4.724476e+00
n3 = 4.104661e+00
n5 = 4.765766e+00
n6 = 5.702373e+00
n7 = -1.84781e+00
n8 = -2.79065e+00
n9 = -2.79065e+00
v0#branch = 9.031846e-04
vs#branch = -2.87070e-04
op1_END
ngspice-31 done
