
Circuit: *

Doing analysis at TEMP = 27.000000 and TNOM = 27.000000


No. of Data Rows : 1
********************************************
Transient analysis
********************************************
Doing analysis at TEMP = 27.000000 and TNOM = 27.000000


Initial Transient Solution
--------------------------

Node                                   Voltage
----                                   -------
n1                                           0
n2                                -5.39718e-13
n3                                -1.65202e-12
n5                                 -4.6562e-13
n6                                     8.49302
n7                                 1.80533e-13
n9                                 1.80533e-13
n8                                 2.72649e-13
h0#branch                           0.00272649
v0#branch                          -8.8242e-17
vs#branch                         -5.15168e-16


No. of Data Rows : 59

The file "transient3.ps" may be printed on a postscript printer.
transient3_FIG
ngspice-31 done
