
Circuit: *

Doing analysis at TEMP = 27.000000 and TNOM = 27.000000


No. of Data Rows : 1
****************
Operating point
****************
op_TAB
@g0[i] = -2.62010e-04
@id[current] = 1.039703e-03
@r1[i] = 2.500671e-04
@r2[i] = -2.62010e-04
@r3[i] = -1.19432e-05
@r4[i] = 1.159730e-03
@r5[i] = -1.30171e-03
@r6[i] = 9.096634e-04
@r7[i] = 9.096634e-04
h0#branch = 1.300393e-04
n1 = 5.046111e+00
n2 = 4.787759e+00
n3 = 4.248290e+00
n4 = -1.88445e+00
n5 = 4.824275e+00
n6 = 8.832281e+00
n8 = -2.81232e+00
n9 = -1.88445e+00
v0#branch = 9.096634e-04
va#branch = -2.50067e-04
op_END
ngspice-31 done
